<?xml version="1.0" encoding="UTF-8"?>

<!-- generated on Fri Jun 15 01:58:46 2018 by SUMO duarouter Version 0.32.0
<?xml version="1.0" encoding="UTF-8"?>

<configuration xmlns:xsi="http://www.w3.org/2001/XMLSchema-instance" xsi:noNamespaceSchemaLocation="http://sumo.dlr.de/xsd/duarouterConfiguration.xsd">

    <input>
        <net-file value="mumbai_ghatkopar.net.xml"/>
        <route-files value="trips.trips.xml"/>
    </input>

    <output>
        <output-file value="mumbai_ghatkopar.rou.xml"/>
        <alternatives-output value="mumbai_ghatkopar.rou.alt.xml"/>
    </output>

    <processing>
        <ignore-errors value="true"/>
    </processing>

    <time>
        <begin value="0"/>
        <end value="50.0"/>
    </time>

    <report>
        <no-warnings value="true"/>
        <no-step-log value="true"/>
    </report>

</configuration>
-->

<routes xmlns:xsi="http://www.w3.org/2001/XMLSchema-instance" xsi:noNamespaceSchemaLocation="http://sumo.dlr.de/xsd/routes_file.xsd">
    <vehicle id="0" depart="0.00">
        <route edges="570227406 -570227406 568670327#4 131951660#0 568648852#2 568648852#3 568648852#4 568648852#5 568648852#6 568648852#7 568648852#8 568662365 568662366 569609841#0 569609841#1 569609841#2 569609841#3 569609836 569609838#0 569609838#1 569609838#2 569609838#3 569609838#4 -215261319 215261319"/>
    </vehicle>
    <vehicle id="1" depart="1.00">
        <route edges="-122183199#11 -122183199#10 -122183199#9 -122183199#8 -122183199#7 -122183199#6 -122183199#5 -122183199#4 -122183199#3 -122183199#2 -122183199#1 -122183199#0 122183192#0 122183192#1 122183192#2 122183192#3 122183192#4 257804750#0 257804750#1 257804750#2 473614663#0 473614663#1 473614663#2 473614663#3 473614663#4 473614663#5 473614663#6 473614663#7 473614663#8 473614663#9 473614663#10 473614663#11 473614663#12 215075913#1 315614622#7 -317183463#6 -317183463#5 -317183463#4 -317183463#3 -317183463#2 -317183463#1 -317183463#0"/>
    </vehicle>
    <vehicle id="2" depart="2.00">
        <route edges="215261319 569609838#5 569609825 569609823#0 569609823#1 569609823#2 569609839 -22856339#4"/>
    </vehicle>
    <vehicle id="3" depart="3.00">
        <route edges="-215242180 -122183199#0 122183192#0 122183192#1 122183192#2 122183192#3 122183202#0 122183202#1 122183202#2 122183202#3 122183202#4 235864125#0"/>
    </vehicle>
    <vehicle id="4" depart="4.00">
        <route edges="366911617#0 366911617#1 366911617#2 366911617#3 366911617#4 366911617#5 366911617#6 -215261270#1 366912378#7 366912378#8 542200603 542200602#0 -151876002#1 -151876002#0 122187935#3 122187935#4 122187935#5 122187935#6 122187935#7 122187935#8 122187935#9 122187935#10 -215261413#1 -215261250#4 -215261250#3 -215261250#2 -215261250#1 -215261365"/>
    </vehicle>
    <vehicle id="5" depart="5.00">
        <route edges="217108178#1 217108178#2 217108178#3 217108183 101932425#0 101932425#1 568648852#0 568648852#1 568648852#2 568648852#3 568648852#4 568648852#5 568648852#6 568648852#7 568648852#8 568662365 568662366 569609842 315614623#0 315614623#1 315614623#2 315614623#3 315614623#4 315614623#5 -215075840#3 -215075840#2 -215075840#1 -215075840#0 -215075807#4 -215075807#3 -215075807#2 -215075807#1 215075807#1"/>
    </vehicle>
    <vehicle id="6" depart="6.00">
        <route edges="473614663#8 -22856339#0 315614622#11"/>
    </vehicle>
    <vehicle id="7" depart="7.00">
        <route edges="-215075946#1 -215075834#2 -215075834#1 -215075834#0 215075813#3 215075813#4 366911617#5 366911617#6 -215261270#1 366912378#7 366912378#8 542200603 542200602#0 542200602#1 542200602#2 569609839 -22856339#4 -22856339#3 -22856339#2 -22856339#1 473614663#9 473614663#10 473614663#11 473614663#12 215075913#1 315614622#7 -317183463#6 -317183463#5 -317183463#4 -317183463#3 -317183463#2 -317183463#1 -317183463#0 122183186#0 122183186#1 215075866 215075819"/>
    </vehicle>
    <vehicle id="9" depart="9.00">
        <route edges="-215261319 215261319 -569609838#4 -569609838#3 -569609838#2 -569609838#1 -569609838#0 -569609836 48863787 315614623#0 315614623#1 315614623#2 315614623#3 315614623#4 315614623#5 315614623#6 -122284098#4 122284098#4"/>
    </vehicle>
    <vehicle id="10" depart="10.00">
        <route edges="-151889261#1 151889270#0 235864127#5 235864127#6 235864127#7 235864127#8 235864127#9 366911617#4 366911617#5 366911617#6 -215261270#1 366912378#7 366912378#8 542200603 542200602#0 542200602#1 542200602#2 -569609823#2 -569609823#1 -569609823#0 -569609825 -569609838#5 -569609838#4 -569609838#3 -569609838#2 -569609838#1 -569609838#0 -569609836 48863787 315614623#0 -438975240#3 -438975240#2 -438975240#1 -215261272#4 -215261272#3 -215261272#2 -215261272#1 -215261272#0 122284084#9"/>
    </vehicle>
    <vehicle id="11" depart="11.00">
        <route edges="-436220573#1 436220573#1 436220573#2 436221255 436221256#0 436221256#1 436220585#4 436220585#0 436220585#1 215089353#0 215089353#1 469497544#0 469497544#1 473614664#0 473614664#1 473614664#2 473614664#3 473614664#4 473614664#5 473614664#6 473614664#7 473614664#8 473614664#9 473614664#10 473614664#11 473614664#12 318168615 568670329#2 568670329#3 568670328 568670327#0 568670327#1 568670327#2 568670327#3 568670327#4 568670327#5"/>
    </vehicle>
    <vehicle id="12" depart="12.00">
        <route edges="215261297 -151876003#12 -151876003#11 215261250#0 215261250#1 215261250#2 215261250#3 215261250#4 215261413#1 -122187935#10 -122187935#9 -122187935#8 -122187935#7 -122187935#6 -122187935#5 -122187935#4 -122187935#3 -122187935#2 -122187935#1 542200602#2 -569609823#2 -569609823#1 -569609823#0 -569609825 -569609838#5 -569609838#4 -569609838#3 -569609838#2 -569609838#1 -569609838#0 -569609836 48863787 315614623#0 315614623#1 315614623#2 315614623#3 315614623#4 315614623#5 315614623#6 -122284098#4 -122284098#3 -122284098#2 -122284098#1 -122284098#0 122284098#0"/>
    </vehicle>
    <vehicle id="13" depart="13.00">
        <route edges="215242148#2 215242148#3 -131950741#3 -131950741#2 -131950741#1 -131950741#0 131956576#2 131956576#3 427219263 -131950246#5 -131950246#4 -131950246#3 -131950246#2 -131950246#1 -131950246#0 568648852#5 215089346#0 568670327#3 570227406 -570227406"/>
    </vehicle>
    <vehicle id="15" depart="15.00">
        <route edges="215075856#2 473614663#5 473614663#6 473614663#7 473614663#8 22856339#1 22856339#2 22856339#3 22856339#4 569609831#0 569609831#1 569609831#2 152381678#1 122187935#0 122187935#1 122187935#2 122187935#3 122187935#4 122187935#5 122187935#6 122187935#7 122187935#8 122187935#9 -215261328 -151876003#2 -151876003#1 -151876003#0"/>
    </vehicle>
    <vehicle id="16" depart="16.00">
        <route edges="122183199#0 -122183199#0 122183192#0 122183192#1 122183192#2 122183192#3 122183192#4 257804750#0 257804750#1 257804750#2 473614663#0 473614663#1 473614663#2 473614663#3 473614663#4 473614663#5 473614663#6 473614663#7 473614663#8 473614663#9 473614663#10 473614663#11 473614663#12 473614663#13 317187239#0 317187239#1 317187239#2 317187239#3 317187239#4 315614623#0 315614623#1 315614623#2 315614623#3 315614623#4 315614623#5 315614623#6 122284098#5 473614664#3"/>
    </vehicle>
    <vehicle id="17" depart="17.00">
        <route edges="-131953978#2 235928617#0 131957296#0 -215242106#2 -215242106#1 -215242106#0 131957625#2"/>
    </vehicle>
    <vehicle id="18" depart="18.00">
        <route edges="122284098#0 122284098#1 122284098#2 122284098#3 122284098#4 122284098#5 473614664#3 473614664#4 473614664#5 473614664#6 473614664#7 473614664#8 473614664#9 473614664#10 473614664#11 473614664#12 318168615 568670329#2 568670329#3 568670328 568670327#0 568670327#1 568670327#2 568670327#3 568670327#4 131951660#0 568648852#2 568648852#3 568648852#4 131950246#0 131950246#1 131950246#2 131950246#3 131950246#4 131950246#5 -427219263 -131956576#3 131953978#0 131953978#1 235928617#0"/>
    </vehicle>
    <vehicle id="19" depart="19.00">
        <route edges="215261335 151876003#10 215261250#0 215261250#1 215261250#2 215261250#3 215261250#4 215261413#1 -122187935#10 -122187935#9 -122187935#8 -122187935#7 -122187935#6 -122187935#5 -122187935#4 -122187935#3 -122187935#2 -122187935#1 542200602#2 569609839 569609831#0 -436337949#1 -436337949#0 -215075890#4 215075890#4"/>
    </vehicle>
    <vehicle id="20" depart="20.00">
        <route edges="568648852#4 568648852#5 568648852#6 568648852#7 568648852#8 568662365 568662366 569609841#0 569609841#1 569609841#2 569609841#3 569609836 569609838#0 569609838#1 569609838#2 569609838#3 569609838#4 569609838#5 569609825 569609823#0 569609823#1 569609823#2 152381678#0 152381678#1 152381678#2 152381678#3 152381678#4 152381678#5 366911618#0 366911618#1 366911617#0 366911617#1 366911617#2 366911617#3 366911617#4 366911617#5 366911617#6 366911617#7 -22855275#13 -22855275#12 -22855275#11 -22855275#10 -22855275#9 -22855275#8 -22855275#7 -22855275#6 -22855275#5 -22855275#4 -22855275#3 -22855275#2 -22855275#1 -22855275#0"/>
    </vehicle>
    <vehicle id="21" depart="21.00">
        <route edges="-235864125#1 -235864125#0 -122183202#4 -122183202#3 -122183202#2 -122183202#1 554898799#1 257804750#0 257804750#1 257804750#2 473614663#0 473614663#1 473614663#2 473614663#3 473614663#4 473614663#5 473614663#6 473614663#7 473614663#8 473614663#9 473614663#10 473614663#11 473614663#12 473614663#13 317187239#0 317187239#1 317187239#2 317187239#3 317187239#4 315614623#0 315614623#1 315614623#2 315614623#3 315614623#4 315614623#5 315614623#6 -122284098#4 -122284098#3 -122284098#2 -122284098#1 -122284098#0 -426552452#1 426552452#1"/>
    </vehicle>
    <vehicle id="22" depart="22.00">
        <route edges="568670327#0 568670327#1 568670327#2 -215089346#0 568648852#6 568648852#7 568648852#8 568662365 568662366 569609842 315614623#0 315614623#1 315614623#2 315614623#3 315614623#4 315614623#5 315614623#6 315614623#7 315614623#8 315614623#9 315614623#10 -469497545 -215089375#2 -215089375#1 -215089375#0 -215089310#2"/>
    </vehicle>
    <vehicle id="23" depart="23.00">
        <route edges="235864127#6 235864127#7 235864127#8 235864127#9 366911617#4 366911617#5 366911617#6 -215261270#1 366912378#7 366912378#8 542200603 542200602#0 542200602#1 542200602#2 -569609823#2 -569609823#1 -569609823#0 -569609825 -569609838#5 -569609838#4 -569609838#3 -569609838#2 -569609838#1 -569609838#0 -569609836 48863787 315614623#0 -438975240#3 -438975240#2 -438975240#1 -215261272#4 -215261272#3 -215261272#2 -215261272#1 215261272#1"/>
    </vehicle>
    <vehicle id="24" depart="24.00">
        <route edges="215089320 215089397#1 -215089295#0 -436220564#2 -436220564#1 -436220564#0 217108178#2 217108178#3 217108183 101932425#0 101932425#1 568648852#0 568648852#1 568648852#2 568648852#3 568648852#4 568648852#5 568648852#6 568648852#7 568648852#8 568662365 568662366 569609842 315614623#0 315614623#1 315614623#2 315614623#3 315614623#4 315614623#5 315614623#6 -122284098#4 -122284098#3 -122284098#2 -122284098#1 -122284098#0 122284084#0 122284084#1 122284084#2 215261242#0"/>
    </vehicle>
    <vehicle id="25" depart="25.00">
        <route edges="122183188 122187932#0 122187932#1 122187932#2 122187932#3 122187932#4 122187932#5 -317183462 215075866 215075819 317183463#0 317183463#1 317183463#2 317183463#3 317183463#4 317183463#5 317183463#6 315614622#8 315614622#9 315614622#10 22856339#0 22856339#1 22856339#2 22856339#3 22856339#4 569609831#0 569609831#1 569609831#2 152381678#1 152381678#2 152381678#3 -122187940#8 -122187940#7 -122187940#6 -122187940#5 215075958"/>
    </vehicle>
    <vehicle id="26" depart="26.00">
        <route edges="554898805#3 554898805#4 554898805#5 554898805#6 554898805#7 554898805#8 22855275#2 22855275#3 22855275#4 22855275#5 22855275#6 22855275#7 22855275#8 22855275#9 22855275#10 22855275#11 22855275#12 22855275#13 22855275#14 366912378#6 -215261270#0 215261275#2 151876001#2"/>
    </vehicle>
    <vehicle id="27" depart="27.00">
        <route edges="-215075868 215075840#2 215075840#3 215075840#4 473614664#5 473614664#6 473614664#7 473614664#8 473614664#9 473614664#10 473614664#11 473614664#12 473614664#13 473614664#14 569609841#0 569609841#1 569609841#2 569609841#3 569609836 569609838#0 569609838#1 569609838#2 569609838#3 569609838#4 569609838#5 569609825 569609823#0 569609823#1 569609823#2 152381678#0 152381678#1 152381678#2 152381678#3 152381678#4 152381678#5 366911618#0 366911618#1 366911617#0 366911617#1 366911617#2 366911617#3 366911617#4 366911617#5 366911617#6 366911617#7 -22855275#13 -22855275#12 -22855275#11 -22855275#10 -22855275#9 -22855275#8 -22855275#7 -22855275#6 215075874 -215075874"/>
    </vehicle>
    <vehicle id="28" depart="28.00">
        <route edges="-215261328 215261328 -122187935#9 -122187935#8 -122187935#7 -122187935#6 -122187935#5 -122187935#4 -122187935#3 -122187935#2 -122187935#1 542200602#2 569609839 -22856339#4 -22856339#3 -22856339#2 -22856339#1 473614663#9 473614663#10 473614663#11 473614663#12 215075913#1 315614622#7 -317183463#6 -317183463#5 -317183463#4 -317183463#3 -317183463#2 -317183463#1 -317183463#0 317184078 318173358 132193999#1 132193999#2 132193999#3 132193999#4 132193999#5 22844323#0 132194000#0"/>
    </vehicle>
    <vehicle id="29" depart="29.00">
        <route edges="215089402#2 215089402#3 215089359#1 -436220564#2 -436220564#1 -436220564#0 217108178#2 217108178#3 217108183 101932425#0 101932425#1 568648852#0 568648852#1 568648852#2 568648852#3 568648852#4 568648852#5 568648852#6 568648852#7 568648852#8 568662365 568662366 569609841#0 569609841#1 569609841#2 569609841#3 569609836 569609838#0 569609838#1 569609838#2 569609838#3 569609838#4 569609838#5 569609825 569609823#0 569609823#1 569609823#2 152381678#0 152381678#1 152381678#2 152381678#3 152381678#4 152381678#5 366911618#0 366911618#1 366911617#0 366911617#1 366911617#2 366911617#3 366911617#4 366911617#5 366911617#6 -215261270#1 366912378#7 215261321#0 151876001#3"/>
    </vehicle>
    <vehicle id="30" depart="30.00">
        <route edges="122284084#8 122284084#9 122284084#10 569609834 569609838#1 569609838#2 569609838#3 569609838#4 569609838#5 569609825 569609823#0 569609823#1 569609823#2 152381678#0 152381678#1 152381678#2 152381678#3 -122187940#8 -122187940#7 -122187940#6 -122187940#5 215075958 215075820#2 -215075820#2"/>
    </vehicle>
    <vehicle id="31" depart="31.00">
        <route edges="215261249#2 -215261249#2 -215261249#1 -215261249#0 -122284087#2 -122284087#1 -122284087#0 -122187935#1 542200602#2 -569609823#2 -569609823#1 -569609823#0 -569609825 -569609838#5 -569609838#4 -569609838#3 -569609838#2 -569609838#1 -569609838#0 -569609836 48863787 568670329#0 568670329#1 568670329#2 568670329#3 568670328 568670327#0 568670327#1 568670327#2 568670327#3 568670327#4 568670327#5 568670330 318167934#2 101933113#0 101933113#1"/>
    </vehicle>
    <vehicle id="32" depart="32.00">
        <route edges="151889276#1 151889276#2 -151889272#1 473614663#1 473614663#2 473614663#3 473614663#4 473614663#5 473614663#6 473614663#7 473614663#8 473614663#9 473614663#10 473614663#11 473614663#12 215075913#1 315614622#7 -317183463#6 -317183463#5 -317183463#4 -317183463#3 -317183463#2 -317183463#1 -317183463#0 317184078 318173358 132193999#1 132193999#2 132193999#3 132193999#4 132193999#5 22844323#0 22844323#1 318172756#2 318172756#3 318172756#4 318172756#5 -131956961#6 215242008#0 215242008#1 -215242008#1"/>
    </vehicle>
    <vehicle id="33" depart="33.00">
        <route edges="-215261398#1 215261398#1 215261250#3 215261250#4 215261413#1 -122187935#10 -122187935#9 -122187935#8 -122187935#7 -122187935#6 -122187935#5 -122187935#4 -122187935#3 -122187935#2 -122187935#1 542200602#2 -569609823#2 -569609823#1 -569609823#0 -569609825 -569609838#5 -569609838#4 -569609838#3 -569609838#2 -569609838#1 -569609838#0 -569609836 48863787 315614623#0 315614623#1 315614623#2 315614623#3 315614623#4 315614623#5 315614623#6 315614623#7 315614623#8 315614623#9 315614623#10 469039140#0 -215089353#2 -215089353#1 -215089353#0 -436220585#1 -436220585#0 -436220585#4 -436221256#1 -436221256#0 -436221255 -436220573#2 -436220573#1 -436220573#0 -436220582#1 -215089295#10 215089356#0 -215089332"/>
    </vehicle>
    <vehicle id="34" depart="34.00">
        <route edges="-131953978#1 -215242084#1 -215242084#0 131957296#2 -131957296#2"/>
    </vehicle>
    <vehicle id="35" depart="35.00">
        <route edges="473614664#2 473614664#3 473614664#4 473614664#5 473614664#6 473614664#7 473614664#8 473614664#9 473614664#10 473614664#11 473614664#12 318168615 568670329#2 568670329#3 568670328 568670327#0 568670327#1 568670327#2 568670327#3 568670327#4 131951660#0 568648852#2 568648852#3 568648852#4 131950246#0 -215242015#3 215242078#0 215242078#1 424007967"/>
    </vehicle>
    <vehicle id="36" depart="36.00">
        <route edges="-215089373#1 215089375#2 473614664#0 473614664#1 473614664#2 473614664#3 473614664#4 473614664#5 473614664#6 473614664#7 473614664#8 473614664#9 473614664#10 473614664#11 473614664#12 473614664#13 473614664#14 569609841#0 569609841#1 569609841#2 569609841#3 569609836 569609838#0 569609838#1 569609838#2 569609838#3 569609838#4 569609838#5 569609825 569609823#0 569609823#1 569609823#2 152381678#0 152381678#1 152381678#2 152381678#3 152381678#4 152381678#5 366911618#0 366911618#1 366911617#0 366911617#1 366911617#2 366911617#3 366911617#4 366911617#5 366911617#6 -215261270#1 366912378#7 215261321#0 151876001#3"/>
    </vehicle>
    <vehicle id="37" depart="37.00">
        <route edges="-215089300#3 215089300#3 -122284097#2 -122284097#1 473614664#1 473614664#2 473614664#3 473614664#4 473614664#5 473614664#6 473614664#7 473614664#8 473614664#9 473614664#10 473614664#11 473614664#12 473614664#13 473614664#14 315614622#0 315614622#1 315614622#2 315614622#3 315614622#4 315614622#5 315614622#6 315614622#7 -317183463#6 -317183463#5 -317183463#4 -317183463#3 -317183463#2 -317183463#1 -317183463#0 122183186#0 122183186#1 317183462 122183188 317183088"/>
    </vehicle>
    <vehicle id="38" depart="38.00">
        <route edges="-215089346#3 -215089346#2 -215089346#1 -215089346#0 568648852#6 568648852#7 568648852#8 568662365 568662366 569609841#0 569609841#1 569609841#2 569609841#3 569609836 569609838#0 569609838#1 569609838#2 569609838#3 569609838#4 569609838#5 569609825 569609823#0 569609823#1 569609823#2 569609839 569609831#0 569609831#1 215075850 -215075931#5 215075856#0"/>
    </vehicle>
    <vehicle id="39" depart="39.00">
        <route edges="22844323#4 -22844323#4 132194070#0 132194070#1 22855341#2 22855341#3 317184400 -318173206 122183186#1 215075866 215075819 317183463#0 317183463#1 317183463#2 317183463#3 317183463#4 317183463#5 317183463#6 315614622#8 315614622#9 315614622#10 22856339#0 22856339#1 22856339#2 22856339#3 22856339#4 569609831#0 569609831#1 569609831#2 152381678#1 122187935#0 122187935#1 122284087#0 122284087#1 122284087#2"/>
    </vehicle>
    <vehicle id="40" depart="40.00">
        <route edges="131953978#0 -131953978#0 131956576#3 427219263 -131950246#5 -131950246#4 -131950246#3 -131950246#2 -131950246#1 -131950246#0 568648852#5 568648852#6 568648852#7 568648852#8 568662365 568662366 569609842 315614623#0 -438975240#3 -438975240#2 -438975240#1 438975240#1"/>
    </vehicle>
    <vehicle id="41" depart="41.00">
        <route edges="122284084#8 122284084#9 122284084#10 569609834 569609838#1 569609838#2 569609838#3 569609838#4 569609838#5 569609825 569609823#0 569609823#1 569609823#2 569609839 569609831#0 569609831#1 215075850 -215075931#5 -215075931#4 215075931#4"/>
    </vehicle>
    <vehicle id="42" depart="42.00">
        <route edges="318167939#0 318167939#1 -569609838#1 -569609838#0 -569609836 48863787 568670329#0 568670329#1 568670329#2 568670329#3 568670328 568670327#0 568670327#1 568670327#2 568670327#3 568670327#4 568670327#5 568670330 318167934#2 101933113#0 101933113#1"/>
    </vehicle>
    <vehicle id="43" depart="43.00">
        <route edges="215261282 122187938#5 122187938#6 122187938#7 122187938#8 366912368#1 366912368#2 366912368#3 366912368#4 -122183199#16 215075892#0 215075878"/>
    </vehicle>
    <vehicle id="44" depart="44.00">
        <route edges="151489118#0 132194070#1 22855341#2 22855341#3 132193999#0 132193999#1 132193999#2 132193999#3 132193999#4 132193999#5 22844323#0 22844323#1 318172756#2 318172756#3 318172756#4 318172756#5 -131956961#6 -131956961#5 -131956961#4 -131956961#3 -131956961#2 -131956961#1 -131956961#0 -131950246#5 -131950246#4 -131950246#3 -131950246#2 -131950246#1 -215242015#3 215242078#0 215242078#1"/>
    </vehicle>
    <vehicle id="45" depart="45.00">
        <route edges="469039140#0 -215089353#2 469497544#0 469497544#1 473614664#0 473614664#1 473614664#2 473614664#3 473614664#4 473614664#5 473614664#6 473614664#7 473614664#8 473614664#9 473614664#10 473614664#11 473614664#12 473614664#13 473614664#14 315614622#0 315614622#1 315614622#2 315614622#3 315614622#4 315614622#5 315614622#6 315614622#7 315614622#8 315614622#9 -317183086#2 -317183086#1 -317183086#0"/>
    </vehicle>
    <vehicle id="46" depart="46.00">
        <route edges="22844323#4 -22844323#4 -22844323#3 -22844323#2 318172756#2 318172756#3 318172756#4 318172756#5 -131956961#6 -131956961#5 -131956961#4 -131956961#3 -131956961#2 -131956961#1 -131956961#0 -131950246#5 -131950246#4 -131950246#3 -131950246#2 -131950246#1 -131950246#0 568648852#5 568648852#6 568648852#7 568648852#8 568662365 568662366 569609842 315614623#0 315614623#1 315614623#2 315614623#3 315614623#4 315614623#5 315614623#6 315614623#7 315614623#8 315614623#9 483179391#1 483179391#2 483179391#3"/>
    </vehicle>
    <vehicle id="47" depart="47.00">
        <route edges="473614663#4 473614663#5 473614663#6 473614663#7 473614663#8 473614663#9 473614663#10 473614663#11 473614663#12 473614663#13 317187239#0 317187239#1 317187239#2 317187239#3 317187239#4 315614623#0 -438975240#3 -438975240#2 -438975240#1"/>
    </vehicle>
    <vehicle id="48" depart="48.00">
        <route edges="317187240 315614622#5 315614622#6 315614622#7 315614622#8 315614622#9 315614622#10 315614622#11 315614622#12 315614622#13 315614622#14 315614622#15 437960385#0"/>
    </vehicle>
    <vehicle id="49" depart="49.00">
        <route edges="568648852#2 568648852#3 568648852#4 568648852#5 568648852#6 568648852#7 568648852#8 568662365 568662366 569609841#0 569609841#1 569609841#2 569609841#3 569609836 569609838#0 569609838#1 569609838#2 569609838#3 569609838#4 569609838#5 569609825 569609823#0 569609823#1 569609823#2 152381678#0 152381678#1 152381678#2 152381678#3 152381678#4 152381678#5 366911618#0 366911618#1 366911617#0 366911617#1 366911617#2 366911617#3 -235864127#9 -235864127#8 -235864127#7 -235864127#6"/>
    </vehicle>
</routes>
